data_As2Pd1Rh1
loop_
_atom_type_symbol
_atom_type_electronegativity
_atom_type_radius
_atom_type_ionic_radius
As 2.1800 1.1500 0.6600
Pd 2.2000 1.4000 0.8462
Rh 2.2800 1.3500 0.7450
_symmetry_space_group_name_H-M Pm
_cell_length_a 3.0849
_cell_length_b 4.7923
_cell_length_c 4.5241
_cell_angle_alpha 90.0000
_cell_angle_beta 101.5575
_cell_angle_gamma 90.0000
_symmetry_Int_Tables_number 6
_chemical_formula_structural As2PdRh
_chemical_formula_sum 'As2 Pd1 Rh1'
_cell_volume 65.6903
_cell_formula_units_Z 1
loop_
_symmetry_equiv_pos_site_id
_symmetry_equiv_pos_as_xyz
1 'x, y, z'
loop_
_atom_site_type_symbol
_atom_site_label
_atom_site_symmetry_multiplicity
_atom_site_fract_x
_atom_site_fract_y
_atom_site_fract_z
_atom_site_occupancy
As As0 1 0.4439 0.5000 0.7117 1
As As1 1 0.8479 0.0000 0.0477 1
Pd Pd2 1 0.8215 0.0000 0.5330 1
Rh Rh3 1 0.3867 0.5000 0.2076 1

