data_Ba1Ge1Sb2
loop_
_atom_type_symbol
_atom_type_electronegativity
_atom_type_radius
_atom_type_ionic_radius
Ba 0.8900 2.1500 1.4900
Ge 2.0100 1.2500 0.7700
Sb 2.0500 1.4500 0.8300
_symmetry_space_group_name_H-M Pm
_cell_length_a 3.5449
_cell_length_b 5.5923
_cell_length_c 6.3241
_cell_angle_alpha 90.0000
_cell_angle_beta 90.0956
_cell_angle_gamma 90.0000
_symmetry_Int_Tables_number 6
_chemical_formula_structural BaGeSb2
_chemical_formula_sum 'Ba1 Ge1 Sb2'
_cell_volume 124.9948
_cell_formula_units_Z 1
loop_
_symmetry_equiv_pos_site_id
_symmetry_equiv_pos_as_xyz
1 'x, y, z'
loop_
_atom_site_type_symbol
_atom_site_label
_atom_site_symmetry_multiplicity
_atom_site_fract_x
_atom_site_fract_y
_atom_site_fract_z
_atom_site_occupancy
Ba Ba0 1 0.4989 0.0000 0.5017 1
Ge Ge1 1 0.0376 0.5000 0.2077 1
Sb Sb2 1 0.9815 0.5000 0.7230 1
Sb Sb3 1 0.9820 0.0000 0.0676 1

