data_Ba1Sn1Br4
loop_
_atom_type_symbol
_atom_type_electronegativity
_atom_type_radius
_atom_type_ionic_radius
Ba 0.8900 2.1500 1.4900
Sn 1.9600 1.4500 0.8300
Br 2.9600 1.1500 0.8825
_symmetry_space_group_name_H-M P2/m
_cell_length_a 7.3849
_cell_length_b 4.9929
_cell_length_c 7.5251
_cell_angle_alpha 90.0000
_cell_angle_beta 115.5579
_cell_angle_gamma 90.0000
_symmetry_Int_Tables_number 10
_chemical_formula_structural BaSnBr4
_chemical_formula_sum 'Ba1 Sn1 Br4'
_cell_volume 250.0858
_cell_formula_units_Z 1
loop_
_symmetry_equiv_pos_site_id
_symmetry_equiv_pos_as_xyz
1 'x, y, z'
loop_
_atom_site_type_symbol
_atom_site_label
_atom_site_symmetry_multiplicity
_atom_site_fract_x
_atom_site_fract_y
_atom_site_fract_z
_atom_site_occupancy
Ba Ba0 1 0.0000 0.5000 0.5000 1
Sn Sn1 1 0.5000 0.5000 0.0000 1
Br Br2 2 0.2577 0.0000 0.2133 1
Br Br3 2 0.2793 0.5000 0.7440 1

