data_Cr1Ge1Cl4
loop_
_atom_type_symbol
_atom_type_electronegativity
_atom_type_radius
_atom_type_ionic_radius
Cr 1.6600 1.4000 0.9400
Ge 2.0100 1.2500 0.7700
Cl 3.1600 1.0000 0.7800
_symmetry_space_group_name_H-M P2/m
_cell_length_a 6.2849
_cell_length_b 3.7926
_cell_length_c 7.1241
_cell_angle_alpha 90.0000
_cell_angle_beta 105.9575
_cell_angle_gamma 90.0000
_symmetry_Int_Tables_number 10
_chemical_formula_structural CrGeCl4
_chemical_formula_sum 'Cr1 Ge1 Cl4'
_cell_volume 163.0358
_cell_formula_units_Z 1
loop_
_symmetry_equiv_pos_site_id
_symmetry_equiv_pos_as_xyz
1 'x, y, z'
loop_
_atom_site_type_symbol
_atom_site_label
_atom_site_symmetry_multiplicity
_atom_site_fract_x
_atom_site_fract_y
_atom_site_fract_z
_atom_site_occupancy
Cr Cr0 1 0.0000 0.5000 0.5000 1
Ge Ge1 1 0.5000 0.5000 0.0000 1
Cl Cl2 2 0.1947 0.0000 0.8333 1
Cl Cl3 2 0.3093 0.5000 0.3640 1

