data_Cs1Tm1Cl4
loop_
_atom_type_symbol
_atom_type_electronegativity
_atom_type_radius
_atom_type_ionic_radius
Cs 0.7900 2.6000 1.8100
Tm 1.2500 1.7500 1.0950
Cl 3.1600 1.0000 0.7800
_symmetry_space_group_name_H-M P4/mmm
_cell_length_a 7.6249
_cell_length_b 7.6249
_cell_length_c 4.3241
_cell_angle_alpha 90.0000
_cell_angle_beta 90.0000
_cell_angle_gamma 90.0000
_symmetry_Int_Tables_number 123
_chemical_formula_structural CsTmCl4
_chemical_formula_sum 'Cs1 Tm1 Cl4'
_cell_volume 251.0858
_cell_formula_units_Z 1
loop_
_symmetry_equiv_pos_site_id
_symmetry_equiv_pos_as_xyz
1 'x, y, z'
loop_
_atom_site_type_symbol
_atom_site_label
_atom_site_symmetry_multiplicity
_atom_site_fract_x
_atom_site_fract_y
_atom_site_fract_z
_atom_site_occupancy
Cs Cs0 1 0.0000 0.0000 0.0000 1
Tm Tm1 1 0.5000 0.5000 0.0000 1
Cl Cl2 4 0.2777 0.2777 0.5000 1

