data_Dy1P1O4
loop_
_atom_type_symbol
_atom_type_electronegativity
_atom_type_radius
_atom_type_ionic_radius
Dy 1.2200 1.7500 1.1310
P 2.1900 1.0000 0.5500
O 3.4400 0.6000 1.2600
_symmetry_space_group_name_H-M P4/mmm
_cell_length_a 3.7449
_cell_length_b 3.7449
_cell_length_c 4.5041
_cell_angle_alpha 90.0000
_cell_angle_beta 90.0000
_cell_angle_gamma 90.0000
_symmetry_Int_Tables_number 123
_chemical_formula_structural DyPO4
_chemical_formula_sum 'Dy1 P1 O4'
_cell_volume 63.2835
_cell_formula_units_Z 1
loop_
_symmetry_equiv_pos_site_id
_symmetry_equiv_pos_as_xyz
1 'x, y, z'
loop_
_atom_site_type_symbol
_atom_site_label
_atom_site_symmetry_multiplicity
_atom_site_fract_x
_atom_site_fract_y
_atom_site_fract_z
_atom_site_occupancy
Dy Dy0 1 0.0000 0.0000 0.0000 1
P P1 1 0.5000 0.5000 0.5000 1
O O2 4 0.0000 0.5000 0.2903 1

