data_Eu1Pd1Br4
loop_
_atom_type_symbol
_atom_type_electronegativity
_atom_type_radius
_atom_type_ionic_radius
Eu 1.2000 1.8500 1.1985
Pd 2.2000 1.4000 0.8462
Br 2.9600 1.1500 0.8825
_symmetry_space_group_name_H-M P2/m
_cell_length_a 6.8849
_cell_length_b 4.1927
_cell_length_c 6.9251
_cell_angle_alpha 90.0000
_cell_angle_beta 105.5575
_cell_angle_gamma 90.0000
_symmetry_Int_Tables_number 10
_chemical_formula_structural EuPdBr4
_chemical_formula_sum 'Eu1 Pd1 Br4'
_cell_volume 193.8858
_cell_formula_units_Z 1
loop_
_symmetry_equiv_pos_site_id
_symmetry_equiv_pos_as_xyz
1 'x, y, z'
loop_
_atom_site_type_symbol
_atom_site_label
_atom_site_symmetry_multiplicity
_atom_site_fract_x
_atom_site_fract_y
_atom_site_fract_z
_atom_site_occupancy
Eu Eu0 1 0.0000 0.5000 0.0000 1
Pd Pd1 1 0.0000 0.0000 0.5000 1
Br Br2 2 0.2177 0.5000 0.3633 1
Br Br3 2 0.2333 0.0000 0.8040 1

