data_Ga1P1O4
loop_
_atom_type_symbol
_atom_type_electronegativity
_atom_type_radius
_atom_type_ionic_radius
Ga 1.8100 1.3000 0.7600
P 2.1900 1.0000 0.5500
O 3.4400 0.6000 1.2600
_symmetry_space_group_name_H-M P1
_cell_length_a 5.0849
_cell_length_b 5.1425
_cell_length_c 5.1941
_cell_angle_alpha 119.5444
_cell_angle_beta 119.5444
_cell_angle_gamma 90.0000
_symmetry_Int_Tables_number 1
_chemical_formula_structural GaPO4
_chemical_formula_sum 'Ga1 P1 O4'
_cell_volume 101.4728
_cell_formula_units_Z 1
loop_
_symmetry_equiv_pos_site_id
_symmetry_equiv_pos_as_xyz
1 'x, y, z'
loop_
_atom_site_type_symbol
_atom_site_label
_atom_site_symmetry_multiplicity
_atom_site_fract_x
_atom_site_fract_y
_atom_site_fract_z
_atom_site_occupancy
Ga Ga0 1 0.9992 0.9949 0.0035 1
P P1 1 0.4975 0.5023 0.5029 1
O O2 1 0.2547 0.2680 0.4073 1
O O3 1 0.2933 0.7029 0.1040 1
O O4 1 0.6763 0.2880 0.9109 1
O O5 1 0.9078 0.7143 0.5664 1

