data_Ga1Sb1Se4
loop_
_atom_type_symbol
_atom_type_electronegativity
_atom_type_radius
_atom_type_ionic_radius
Ga 1.8100 1.3000 0.7600
Sb 2.0500 1.4500 0.8300
Se 2.5500 1.1500 1.0133
_symmetry_space_group_name_H-M P1
_cell_length_a 5.9449
_cell_length_b 5.9449
_cell_length_c 6.1651
_cell_angle_alpha 114.0444
_cell_angle_beta 114.0449
_cell_angle_gamma 90.0000
_symmetry_Int_Tables_number 1
_chemical_formula_structural GaSbSe4
_chemical_formula_sum 'Ga1 Sb1 Se4'
_cell_volume 170.8628
_cell_formula_units_Z 1
loop_
_symmetry_equiv_pos_site_id
_symmetry_equiv_pos_as_xyz
1 'x, y, z'
loop_
_atom_site_type_symbol
_atom_site_label
_atom_site_symmetry_multiplicity
_atom_site_fract_x
_atom_site_fract_y
_atom_site_fract_z
_atom_site_occupancy
Ga Ga0 1 0.4902 0.4902 0.9904 1
Sb Sb1 1 0.9825 0.0086 0.0086 1
Se Se2 1 0.1047 0.1886 0.7413 1
Se Se3 1 0.4033 0.8229 0.2340 1
Se Se4 1 0.6263 0.6200 0.7659 1
Se Se5 1 0.8578 0.3843 0.2446 1

