data_Hf1Cr1As2
loop_
_atom_type_symbol
_atom_type_electronegativity
_atom_type_radius
_atom_type_ionic_radius
Hf 1.3000 1.5500 0.8500
Cr 1.6600 1.4000 0.9400
As 2.1800 1.1500 0.6600
_symmetry_space_group_name_H-M Pm
_cell_length_a 3.3849
_cell_length_b 4.5929
_cell_length_c 4.5941
_cell_angle_alpha 90.0000
_cell_angle_beta 100.5575
_cell_angle_gamma 90.0000
_symmetry_Int_Tables_number 6
_chemical_formula_structural HfCrAs2
_chemical_formula_sum 'Hf1 Cr1 As2'
_cell_volume 70.4908
_cell_formula_units_Z 1
loop_
_symmetry_equiv_pos_site_id
_symmetry_equiv_pos_as_xyz
1 'x, y, z'
loop_
_atom_site_type_symbol
_atom_site_label
_atom_site_symmetry_multiplicity
_atom_site_fract_x
_atom_site_fract_y
_atom_site_fract_z
_atom_site_occupancy
Hf Hf0 1 0.2489 0.5000 0.8117 1
Cr Cr1 1 0.6375 0.0000 0.4077 1
As As2 1 0.6385 0.5000 0.3330 1
As As3 1 0.9750 0.0000 0.9476 1

