data_K2As1Au1
loop_
_atom_type_symbol
_atom_type_electronegativity
_atom_type_radius
_atom_type_ionic_radius
K 0.8200 2.2000 1.5200
As 2.1800 1.1500 0.6600
Au 2.5400 1.3500 1.0700
_symmetry_space_group_name_H-M Pm
_cell_length_a 5.2449
_cell_length_b 4.7929
_cell_length_c 5.5251
_cell_angle_alpha 90.0000
_cell_angle_beta 115.9579
_cell_angle_gamma 90.0000
_symmetry_Int_Tables_number 6
_chemical_formula_structural K2AsAu
_chemical_formula_sum 'K2 As1 Au1'
_cell_volume 124.2485
_cell_formula_units_Z 1
loop_
_symmetry_equiv_pos_site_id
_symmetry_equiv_pos_as_xyz
1 'x, y, z'
loop_
_atom_site_type_symbol
_atom_site_label
_atom_site_symmetry_multiplicity
_atom_site_fract_x
_atom_site_fract_y
_atom_site_fract_z
_atom_site_occupancy
K K0 1 0.0991 0.0000 0.0575 1
K K1 1 0.3992 0.5000 0.6772 1
As As2 1 0.7957 0.0000 0.4303 1
Au Au3 1 0.7060 0.5000 0.3350 1

