data_K1Al1Cl4
loop_
_atom_type_symbol
_atom_type_electronegativity
_atom_type_radius
_atom_type_ionic_radius
K 0.8200 2.2000 1.5200
Al 1.6100 1.2500 0.6750
Cl 3.1600 1.0000 0.7800
_symmetry_space_group_name_H-M P2/m
_cell_length_a 6.3849
_cell_length_b 3.6426
_cell_length_c 7.5241
_cell_angle_alpha 90.0000
_cell_angle_beta 105.5575
_cell_angle_gamma 90.0000
_symmetry_Int_Tables_number 10
_chemical_formula_structural KAlCl4
_chemical_formula_sum 'K1 Al1 Cl4'
_cell_volume 169.0358
_cell_formula_units_Z 1
loop_
_symmetry_equiv_pos_site_id
_symmetry_equiv_pos_as_xyz
1 'x, y, z'
loop_
_atom_site_type_symbol
_atom_site_label
_atom_site_symmetry_multiplicity
_atom_site_fract_x
_atom_site_fract_y
_atom_site_fract_z
_atom_site_occupancy
K K0 1 0.0000 0.5000 0.5000 1
Al Al1 1 0.5000 0.5000 0.0000 1
Cl Cl2 2 0.2587 0.0000 0.7933 1
Cl Cl3 2 0.4033 0.5000 0.2044 1

