data_K1In1Te2
loop_
_atom_type_symbol
_atom_type_electronegativity
_atom_type_radius
_atom_type_ionic_radius
K 0.8200 2.2000 1.5200
In 1.7800 1.5500 0.9400
Te 2.1000 1.4000 1.2933
_symmetry_space_group_name_H-M Pm
_cell_length_a 3.1849
_cell_length_b 6.5925
_cell_length_c 6.5641
_cell_angle_alpha 90.0000
_cell_angle_beta 90.0957
_cell_angle_gamma 90.0000
_symmetry_Int_Tables_number 6
_chemical_formula_structural KInTe2
_chemical_formula_sum 'K1 In1 Te2'
_cell_volume 137.9908
_cell_formula_units_Z 1
loop_
_symmetry_equiv_pos_site_id
_symmetry_equiv_pos_as_xyz
1 'x, y, z'
loop_
_atom_site_type_symbol
_atom_site_label
_atom_site_symmetry_multiplicity
_atom_site_fract_x
_atom_site_fract_y
_atom_site_fract_z
_atom_site_occupancy
K K0 1 0.7409 0.5000 0.8717 1
In In1 1 0.2775 0.0000 0.3677 1
Te Te2 1 0.1985 0.0000 0.8790 1
Te Te3 1 0.3830 0.5000 0.3816 1

