data_K1Na1Br2
loop_
_atom_type_symbol
_atom_type_electronegativity
_atom_type_radius
_atom_type_ionic_radius
K 0.8200 2.2000 1.5200
Na 0.9300 1.8000 1.1600
Br 2.9600 1.1500 0.8825
_symmetry_space_group_name_H-M Pm
_cell_length_a 4.5449
_cell_length_b 6.3929
_cell_length_c 4.5941
_cell_angle_alpha 90.0000
_cell_angle_beta 90.0553
_cell_angle_gamma 90.0000
_symmetry_Int_Tables_number 6
_chemical_formula_structural KNaBr2
_chemical_formula_sum 'K1 Na1 Br2'
_cell_volume 132.9983
_cell_formula_units_Z 1
loop_
_symmetry_equiv_pos_site_id
_symmetry_equiv_pos_as_xyz
1 'x, y, z'
loop_
_atom_site_type_symbol
_atom_site_label
_atom_site_symmetry_multiplicity
_atom_site_fract_x
_atom_site_fract_y
_atom_site_fract_z
_atom_site_occupancy
K K0 1 0.3839 0.0000 0.3717 1
Na Na1 1 0.8739 0.5000 0.8777 1
Br Br2 1 0.3685 0.5000 0.3710 1
Br Br3 1 0.8737 0.0000 0.8796 1

