data_La1In1As2
loop_
_atom_type_symbol
_atom_type_electronegativity
_atom_type_radius
_atom_type_ionic_radius
La 1.1000 1.9500 1.1720
In 1.7800 1.5500 0.9400
As 2.1800 1.1500 0.6600
_symmetry_space_group_name_H-M Pm
_cell_length_a 4.2449
_cell_length_b 5.5925
_cell_length_c 4.5241
_cell_angle_alpha 90.0000
_cell_angle_beta 90.0957
_cell_angle_gamma 90.0000
_symmetry_Int_Tables_number 6
_chemical_formula_structural LaInAs2
_chemical_formula_sum 'La1 In1 As2'
_cell_volume 107.9988
_cell_formula_units_Z 1
loop_
_symmetry_equiv_pos_site_id
_symmetry_equiv_pos_as_xyz
1 'x, y, z'
loop_
_atom_site_type_symbol
_atom_site_label
_atom_site_symmetry_multiplicity
_atom_site_fract_x
_atom_site_fract_y
_atom_site_fract_z
_atom_site_occupancy
La La0 1 0.7489 0.5000 0.1417 1
In In1 1 0.4579 0.0000 0.6077 1
As As2 1 0.0515 0.0000 0.1030 1
As As3 1 0.2417 0.5000 0.6476 1

