data_Li1Cu1Cl2
loop_
_atom_type_symbol
_atom_type_electronegativity
_atom_type_radius
_atom_type_ionic_radius
Li 0.9800 1.4500 0.9000
Cu 1.9000 1.3500 0.8200
Cl 3.1600 1.0000 0.7800
_symmetry_space_group_name_H-M Pm
_cell_length_a 3.5849
_cell_length_b 4.9923
_cell_length_c 4.1951
_cell_angle_alpha 90.0000
_cell_angle_beta 105.9579
_cell_angle_gamma 90.0000
_symmetry_Int_Tables_number 6
_chemical_formula_structural LiCuCl2
_chemical_formula_sum 'Li1 Cu1 Cl2'
_cell_volume 72.3908
_cell_formula_units_Z 1
loop_
_symmetry_equiv_pos_site_id
_symmetry_equiv_pos_as_xyz
1 'x, y, z'
loop_
_atom_site_type_symbol
_atom_site_label
_atom_site_symmetry_multiplicity
_atom_site_fract_x
_atom_site_fract_y
_atom_site_fract_z
_atom_site_occupancy
Li Li0 1 0.7489 0.5000 0.1917 1
Cu Cu1 1 0.4775 0.0000 0.5777 1
Cl Cl2 1 0.3985 0.5000 0.6130 1
Cl Cl3 1 0.8750 0.0000 0.1176 1

