data_Li1Eu1Te2
loop_
_atom_type_symbol
_atom_type_electronegativity
_atom_type_radius
_atom_type_ionic_radius
Li 0.9800 1.4500 0.9000
Eu 1.2000 1.8500 1.1985
Te 2.1000 1.4000 1.2933
_symmetry_space_group_name_H-M P-6m2
_cell_length_a 4.8249
_cell_length_b 4.8249
_cell_length_c 6.5241
_cell_angle_alpha 90.0000
_cell_angle_beta 90.0000
_cell_angle_gamma 120.0000
_symmetry_Int_Tables_number 187
_chemical_formula_structural LiEuTe2
_chemical_formula_sum 'Li1 Eu1 Te2'
_cell_volume 131.3583
_cell_formula_units_Z 1
loop_
_symmetry_equiv_pos_site_id
_symmetry_equiv_pos_as_xyz
1 'x, y, z'
loop_
_atom_site_type_symbol
_atom_site_label
_atom_site_symmetry_multiplicity
_atom_site_fract_x
_atom_site_fract_y
_atom_site_fract_z
_atom_site_occupancy
Li Li0 1 0.0000 0.0000 0.5000 1
Eu Eu1 1 0.3333 0.6667 0.0000 1
Te Te2 1 0.0000 0.0000 0.0000 1
Te Te3 1 0.6667 0.3333 0.5000 1

