data_Li1V1Te2
loop_
_atom_type_symbol
_atom_type_electronegativity
_atom_type_radius
_atom_type_ionic_radius
Li 0.9800 1.4500 0.9000
V 1.6300 1.3500 0.7775
Te 2.1000 1.4000 1.2933
_symmetry_space_group_name_H-M Pm
_cell_length_a 3.8449
_cell_length_b 5.7329
_cell_length_c 4.1241
_cell_angle_alpha 90.0000
_cell_angle_beta 90.0957
_cell_angle_gamma 90.0000
_symmetry_Int_Tables_number 6
_chemical_formula_structural LiVTe2
_chemical_formula_sum 'Li1 V1 Te2'
_cell_volume 90.8990
_cell_formula_units_Z 1
loop_
_symmetry_equiv_pos_site_id
_symmetry_equiv_pos_as_xyz
1 'x, y, z'
loop_
_atom_site_type_symbol
_atom_site_label
_atom_site_symmetry_multiplicity
_atom_site_fract_x
_atom_site_fract_y
_atom_site_fract_z
_atom_site_occupancy
Li Li0 1 0.1348 0.5000 0.8611 1
V V1 1 0.6137 0.0000 0.3877 1
Te Te2 1 0.1201 0.0000 0.8823 1
Te Te3 1 0.6314 0.5000 0.3688 1

