data_Lu1H1Cl4
loop_
_atom_type_symbol
_atom_type_electronegativity
_atom_type_radius
_atom_type_ionic_radius
Lu 1.2700 1.7500 1.0010
H 2.2000 0.2500 0.0000
Cl 3.1600 1.0000 0.7800
_symmetry_space_group_name_H-M P4/mmm
_cell_length_a 4.5249
_cell_length_b 4.5249
_cell_length_c 6.3241
_cell_angle_alpha 90.0000
_cell_angle_beta 90.0000
_cell_angle_gamma 90.0000
_symmetry_Int_Tables_number 123
_chemical_formula_structural LuHCl4
_chemical_formula_sum 'Lu1 H1 Cl4'
_cell_volume 129.4758
_cell_formula_units_Z 1
loop_
_symmetry_equiv_pos_site_id
_symmetry_equiv_pos_as_xyz
1 'x, y, z'
loop_
_atom_site_type_symbol
_atom_site_label
_atom_site_symmetry_multiplicity
_atom_site_fract_x
_atom_site_fract_y
_atom_site_fract_z
_atom_site_occupancy
Lu Lu0 1 0.5000 0.5000 0.0000 1
H H1 1 0.0000 0.0000 0.5000 1
Cl Cl2 4 0.0000 0.5000 0.2433 1

