data_Mg1Cr1Se4
loop_
_atom_type_symbol
_atom_type_electronegativity
_atom_type_radius
_atom_type_ionic_radius
Mg 1.3100 1.5000 0.8600
Cr 1.6600 1.4000 0.9400
Se 2.5500 1.1500 1.0133
_symmetry_space_group_name_H-M P2/m
_cell_length_a 6.3849
_cell_length_b 3.6901
_cell_length_c 6.5941
_cell_angle_alpha 90.0000
_cell_angle_beta 107.9575
_cell_angle_gamma 90.0000
_symmetry_Int_Tables_number 10
_chemical_formula_structural MgCrSe4
_chemical_formula_sum 'Mg1 Cr1 Se4'
_cell_volume 147.0358
_cell_formula_units_Z 1
loop_
_symmetry_equiv_pos_site_id
_symmetry_equiv_pos_as_xyz
1 'x, y, z'
loop_
_atom_site_type_symbol
_atom_site_label
_atom_site_symmetry_multiplicity
_atom_site_fract_x
_atom_site_fract_y
_atom_site_fract_z
_atom_site_occupancy
Mg Mg0 1 0.5000 0.0000 0.0000 1
Cr Cr1 1 0.5000 0.5000 0.5000 1
Se Se2 2 0.2577 0.0000 0.7433 1
Se Se3 2 0.2733 0.5000 0.2540 1

