data_Mg1Mo1S4
loop_
_atom_type_symbol
_atom_type_electronegativity
_atom_type_radius
_atom_type_ionic_radius
Mg 1.3100 1.5000 0.8600
Mo 2.1600 1.4500 0.7750
S 2.5800 1.0000 0.8800
_symmetry_space_group_name_H-M P-6m2
_cell_length_a 3.3449
_cell_length_b 3.3449
_cell_length_c 12.7411
_cell_angle_alpha 90.0000
_cell_angle_beta 90.0000
_cell_angle_gamma 120.0000
_symmetry_Int_Tables_number 187
_chemical_formula_structural MgMoS4
_chemical_formula_sum 'Mg1 Mo1 S4'
_cell_volume 123.5834
_cell_formula_units_Z 1
loop_
_symmetry_equiv_pos_site_id
_symmetry_equiv_pos_as_xyz
1 'x, y, z'
loop_
_atom_site_type_symbol
_atom_site_label
_atom_site_symmetry_multiplicity
_atom_site_fract_x
_atom_site_fract_y
_atom_site_fract_z
_atom_site_occupancy
Mg Mg0 1 0.0000 0.0000 0.5000 1
Mo Mo1 1 0.0000 0.0000 0.0000 1
S S2 2 0.3333 0.6667 0.3743 1
S S3 2 0.6667 0.3333 0.1218 1

