data_Mg1Sn1Sb2
loop_
_atom_type_symbol
_atom_type_electronegativity
_atom_type_radius
_atom_type_ionic_radius
Mg 1.3100 1.5000 0.8600
Sn 1.9600 1.4500 0.8300
Sb 2.0500 1.4500 0.8300
_symmetry_space_group_name_H-M Pm
_cell_length_a 3.2849
_cell_length_b 6.0026
_cell_length_c 5.5951
_cell_angle_alpha 90.0000
_cell_angle_beta 90.0956
_cell_angle_gamma 90.0000
_symmetry_Int_Tables_number 6
_chemical_formula_structural MgSnSb2
_chemical_formula_sum 'Mg1 Sn1 Sb2'
_cell_volume 109.9988
_cell_formula_units_Z 1
loop_
_symmetry_equiv_pos_site_id
_symmetry_equiv_pos_as_xyz
1 'x, y, z'
loop_
_atom_site_type_symbol
_atom_site_label
_atom_site_symmetry_multiplicity
_atom_site_fract_x
_atom_site_fract_y
_atom_site_fract_z
_atom_site_occupancy
Mg Mg0 1 0.8439 0.5000 0.1317 1
Sn Sn1 1 0.4375 0.0000 0.6177 1
Sb Sb2 1 0.3515 0.5000 0.6300 1
Sb Sb3 1 0.8670 0.0000 0.1206 1

