data_Mo1P1Se4
loop_
_atom_type_symbol
_atom_type_electronegativity
_atom_type_radius
_atom_type_ionic_radius
Mo 2.1600 1.4500 0.7750
P 2.1900 1.0000 0.5500
Se 2.5500 1.1500 1.0133
_symmetry_space_group_name_H-M P-6m2
_cell_length_a 3.3249
_cell_length_b 3.3249
_cell_length_c 13.9511
_cell_angle_alpha 90.0000
_cell_angle_beta 90.0000
_cell_angle_gamma 120.0000
_symmetry_Int_Tables_number 187
_chemical_formula_structural MoPSe4
_chemical_formula_sum 'Mo1 P1 Se4'
_cell_volume 134.0832
_cell_formula_units_Z 1
loop_
_symmetry_equiv_pos_site_id
_symmetry_equiv_pos_as_xyz
1 'x, y, z'
loop_
_atom_site_type_symbol
_atom_site_label
_atom_site_symmetry_multiplicity
_atom_site_fract_x
_atom_site_fract_y
_atom_site_fract_z
_atom_site_occupancy
Mo Mo0 1 0.0000 0.0000 0.5000 1
P P1 1 0.3333 0.6667 0.0000 1
Se Se2 2 0.0000 0.0000 0.1242 1
Se Se3 2 0.3333 0.6667 0.6278 1

