data_Na1Rh1Cl4
loop_
_atom_type_symbol
_atom_type_electronegativity
_atom_type_radius
_atom_type_ionic_radius
Na 0.9300 1.8000 1.1600
Rh 2.2800 1.3500 0.7450
Cl 3.1600 1.0000 0.7800
_symmetry_space_group_name_H-M P2/m
_cell_length_a 5.1249
_cell_length_b 3.6026
_cell_length_c 6.5941
_cell_angle_alpha 90.0000
_cell_angle_beta 105.5575
_cell_angle_gamma 90.0000
_symmetry_Int_Tables_number 10
_chemical_formula_structural NaRhCl4
_chemical_formula_sum 'Na1 Rh1 Cl4'
_cell_volume 117.0858
_cell_formula_units_Z 1
loop_
_symmetry_equiv_pos_site_id
_symmetry_equiv_pos_as_xyz
1 'x, y, z'
loop_
_atom_site_type_symbol
_atom_site_label
_atom_site_symmetry_multiplicity
_atom_site_fract_x
_atom_site_fract_y
_atom_site_fract_z
_atom_site_occupancy
Na Na0 1 0.0000 0.5000 0.5000 1
Rh Rh1 1 0.5000 0.5000 0.0000 1
Cl Cl2 2 0.2917 0.0000 0.2173 1
Cl Cl3 2 0.3033 0.5000 0.7640 1

