data_Na1Ti1Se2
loop_
_atom_type_symbol
_atom_type_electronegativity
_atom_type_radius
_atom_type_ionic_radius
Na 0.9300 1.8000 1.1600
Ti 1.5400 1.4000 0.8517
Se 2.5500 1.1500 1.0133
_symmetry_space_group_name_H-M Pm
_cell_length_a 4.0449
_cell_length_b 5.0301
_cell_length_c 4.5241
_cell_angle_alpha 90.0000
_cell_angle_beta 100.5535
_cell_angle_gamma 90.0000
_symmetry_Int_Tables_number 6
_chemical_formula_structural NaTiSe2
_chemical_formula_sum 'Na1 Ti1 Se2'
_cell_volume 90.9903
_cell_formula_units_Z 1
loop_
_symmetry_equiv_pos_site_id
_symmetry_equiv_pos_as_xyz
1 'x, y, z'
loop_
_atom_site_type_symbol
_atom_site_label
_atom_site_symmetry_multiplicity
_atom_site_fract_x
_atom_site_fract_y
_atom_site_fract_z
_atom_site_occupancy
Na Na0 1 0.7489 0.5000 0.1817 1
Ti Ti1 1 0.3579 0.0000 0.6777 1
Se Se2 1 0.0385 0.0000 0.0230 1
Se Se3 1 0.3547 0.5000 0.6176 1

