data_P2Os1Rh1
loop_
_atom_type_symbol
_atom_type_electronegativity
_atom_type_radius
_atom_type_ionic_radius
P 2.1900 1.0000 0.5500
Os 2.2000 1.3000 0.6730
Rh 2.2800 1.3500 0.7450
_symmetry_space_group_name_H-M Pm
_cell_length_a 3.0449
_cell_length_b 4.5929
_cell_length_c 4.1041
_cell_angle_alpha 90.0000
_cell_angle_beta 98.0957
_cell_angle_gamma 90.0000
_symmetry_Int_Tables_number 6
_chemical_formula_structural P2OsRh
_chemical_formula_sum 'P2 Os1 Rh1'
_cell_volume 57.0994
_cell_formula_units_Z 1
loop_
_symmetry_equiv_pos_site_id
_symmetry_equiv_pos_as_xyz
1 'x, y, z'
loop_
_atom_site_type_symbol
_atom_site_label
_atom_site_symmetry_multiplicity
_atom_site_fract_x
_atom_site_fract_y
_atom_site_fract_z
_atom_site_occupancy
P P0 1 0.4348 0.5000 0.7211 1
P P1 1 0.8647 0.0000 0.0377 1
Os Os2 1 0.8201 0.5000 0.1823 1
Rh Rh3 1 0.3804 0.0000 0.5588 1

