data_Pr1Sb1Se4
loop_
_atom_type_symbol
_atom_type_electronegativity
_atom_type_radius
_atom_type_ionic_radius
Pr 1.1300 1.8500 1.0600
Sb 2.0500 1.4500 0.8300
Se 2.5500 1.1500 1.0133
_symmetry_space_group_name_H-M P4/mmm
_cell_length_a 4.2249
_cell_length_b 4.2249
_cell_length_c 10.2519
_cell_angle_alpha 90.0000
_cell_angle_beta 90.0000
_cell_angle_gamma 90.0000
_symmetry_Int_Tables_number 123
_chemical_formula_structural PrSbSe4
_chemical_formula_sum 'Pr1 Sb1 Se4'
_cell_volume 183.3583
_cell_formula_units_Z 1
loop_
_symmetry_equiv_pos_site_id
_symmetry_equiv_pos_as_xyz
1 'x, y, z'
loop_
_atom_site_type_symbol
_atom_site_label
_atom_site_symmetry_multiplicity
_atom_site_fract_x
_atom_site_fract_y
_atom_site_fract_z
_atom_site_occupancy
Pr Pr0 1 0.0000 0.0000 0.0000 1
Sb Sb1 1 0.5000 0.5000 0.5000 1
Se Se2 4 0.0000 0.5000 0.2139 1

