data_Rb1Pr1I4
loop_
_atom_type_symbol
_atom_type_electronegativity
_atom_type_radius
_atom_type_ionic_radius
Rb 0.8200 2.3500 1.6600
Pr 1.1300 1.8500 1.0600
I 2.6600 1.4000 1.2733
_symmetry_space_group_name_H-M P4/mmm
_cell_length_a 6.3849
_cell_length_b 6.3849
_cell_length_c 6.5251
_cell_angle_alpha 90.0000
_cell_angle_beta 90.0000
_cell_angle_gamma 90.0000
_symmetry_Int_Tables_number 123
_chemical_formula_structural RbPrI4
_chemical_formula_sum 'Rb1 Pr1 I4'
_cell_volume 266.0858
_cell_formula_units_Z 1
loop_
_symmetry_equiv_pos_site_id
_symmetry_equiv_pos_as_xyz
1 'x, y, z'
loop_
_atom_site_type_symbol
_atom_site_label
_atom_site_symmetry_multiplicity
_atom_site_fract_x
_atom_site_fract_y
_atom_site_fract_z
_atom_site_occupancy
Rb Rb0 1 0.5000 0.5000 0.5000 1
Pr Pr1 1 0.0000 0.0000 0.0000 1
I I2 4 0.0000 0.5000 0.2433 1

