data_Rb1Tm1Br4
loop_
_atom_type_symbol
_atom_type_electronegativity
_atom_type_radius
_atom_type_ionic_radius
Rb 0.8200 2.3500 1.6600
Tm 1.2500 1.7500 1.0950
Br 2.9600 1.1500 0.8825
_symmetry_space_group_name_H-M P4/mmm
_cell_length_a 7.8849
_cell_length_b 7.8849
_cell_length_c 4.3941
_cell_angle_alpha 90.0000
_cell_angle_beta 90.0000
_cell_angle_gamma 90.0000
_symmetry_Int_Tables_number 123
_chemical_formula_structural RbTmBr4
_chemical_formula_sum 'Rb1 Tm1 Br4'
_cell_volume 273.0858
_cell_formula_units_Z 1
loop_
_symmetry_equiv_pos_site_id
_symmetry_equiv_pos_as_xyz
1 'x, y, z'
loop_
_atom_site_type_symbol
_atom_site_label
_atom_site_symmetry_multiplicity
_atom_site_fract_x
_atom_site_fract_y
_atom_site_fract_z
_atom_site_occupancy
Rb Rb0 1 0.0000 0.0000 0.0000 1
Tm Tm1 1 0.5000 0.5000 0.0000 1
Br Br2 4 0.2687 0.2687 0.5000 1

