data_Sb1Te4P1
loop_
_atom_type_symbol
_atom_type_electronegativity
_atom_type_radius
_atom_type_ionic_radius
Sb 2.0500 1.4500 0.8300
Te 2.1000 1.4000 1.2933
P 2.1900 1.0000 0.5500
_symmetry_space_group_name_H-M P-3m1
_cell_length_a 4.2449
_cell_length_b 4.2449
_cell_length_c 12.2419
_cell_angle_alpha 90.0000
_cell_angle_beta 90.0000
_cell_angle_gamma 120.0000
_symmetry_Int_Tables_number 164
_chemical_formula_structural SbTe4P
_chemical_formula_sum 'Sb1 Te4 P1'
_cell_volume 190.5834
_cell_formula_units_Z 1
loop_
_symmetry_equiv_pos_site_id
_symmetry_equiv_pos_as_xyz
1 'x, y, z'
loop_
_atom_site_type_symbol
_atom_site_label
_atom_site_symmetry_multiplicity
_atom_site_fract_x
_atom_site_fract_y
_atom_site_fract_z
_atom_site_occupancy
Sb Sb0 1 0.0000 0.0000 0.5000 1
Te Te1 2 0.3333 0.6667 0.3468 1
Te Te2 2 0.3333 0.6667 0.8392 1
P P3 1 0.0000 0.0000 0.0000 1

