data_Sc1Bi1P2
loop_
_atom_type_symbol
_atom_type_electronegativity
_atom_type_radius
_atom_type_ionic_radius
Sc 1.3600 1.6000 0.8850
Bi 2.0200 1.6000 1.0350
P 2.1900 1.0000 0.5500
_symmetry_space_group_name_H-M Pm
_cell_length_a 3.9849
_cell_length_b 5.5929
_cell_length_c 3.9951
_cell_angle_alpha 90.0000
_cell_angle_beta 90.0557
_cell_angle_gamma 90.0000
_symmetry_Int_Tables_number 6
_chemical_formula_structural ScBiP2
_chemical_formula_sum 'Sc1 Bi1 P2'
_cell_volume 88.8998
_cell_formula_units_Z 1
loop_
_symmetry_equiv_pos_site_id
_symmetry_equiv_pos_as_xyz
1 'x, y, z'
loop_
_atom_site_type_symbol
_atom_site_label
_atom_site_symmetry_multiplicity
_atom_site_fract_x
_atom_site_fract_y
_atom_site_fract_z
_atom_site_occupancy
Sc Sc0 1 0.3848 0.0000 0.6141 1
Bi Bi1 1 0.8647 0.5000 0.1277 1
P P2 1 0.3631 0.5000 0.6253 1
P P3 1 0.8874 0.0000 0.1330 1

