data_Sc1Re1P2
loop_
_atom_type_symbol
_atom_type_electronegativity
_atom_type_radius
_atom_type_ionic_radius
Sc 1.3600 1.6000 0.8850
Re 1.9000 1.3500 0.7125
P 2.1900 1.0000 0.5500
_symmetry_space_group_name_H-M Pm
_cell_length_a 3.1849
_cell_length_b 4.6929
_cell_length_c 4.5241
_cell_angle_alpha 90.0000
_cell_angle_beta 107.9575
_cell_angle_gamma 90.0000
_symmetry_Int_Tables_number 6
_chemical_formula_structural ScReP2
_chemical_formula_sum 'Sc1 Re1 P2'
_cell_volume 64.3283
_cell_formula_units_Z 1
loop_
_symmetry_equiv_pos_site_id
_symmetry_equiv_pos_as_xyz
1 'x, y, z'
loop_
_atom_site_type_symbol
_atom_site_label
_atom_site_symmetry_multiplicity
_atom_site_fract_x
_atom_site_fract_y
_atom_site_fract_z
_atom_site_occupancy
Sc Sc0 1 0.2489 0.5000 0.8417 1
Re Re1 1 0.6079 0.0000 0.3777 1
P P2 1 0.7185 0.5000 0.3630 1
P P3 1 0.9247 0.0000 0.9176 1

