data_Sc1Sb2Au1
loop_
_atom_type_symbol
_atom_type_electronegativity
_atom_type_radius
_atom_type_ionic_radius
Sc 1.3600 1.6000 0.8850
Sb 2.0500 1.4500 0.8300
Au 2.5400 1.3500 1.0700
_symmetry_space_group_name_H-M Pm
_cell_length_a 3.2449
_cell_length_b 4.5927
_cell_length_c 6.5251
_cell_angle_alpha 90.0000
_cell_angle_beta 101.9575
_cell_angle_gamma 90.0000
_symmetry_Int_Tables_number 6
_chemical_formula_structural ScSb2Au
_chemical_formula_sum 'Sc1 Sb2 Au1'
_cell_volume 95.3948
_cell_formula_units_Z 1
loop_
_symmetry_equiv_pos_site_id
_symmetry_equiv_pos_as_xyz
1 'x, y, z'
loop_
_atom_site_type_symbol
_atom_site_label
_atom_site_symmetry_multiplicity
_atom_site_fract_x
_atom_site_fract_y
_atom_site_fract_z
_atom_site_occupancy
Sc Sc0 1 0.0739 0.0000 0.4917 1
Sb Sb1 1 0.4775 0.5000 0.3057 1
Sb Sb2 1 0.8315 0.0000 0.9430 1
Au Au3 1 0.6170 0.5000 0.7596 1

