data_Sc1Sb2Os1
loop_
_atom_type_symbol
_atom_type_electronegativity
_atom_type_radius
_atom_type_ionic_radius
Sc 1.3600 1.6000 0.8850
Sb 2.0500 1.4500 0.8300
Os 2.2000 1.3000 0.6730
_symmetry_space_group_name_H-M Pm
_cell_length_a 3.2849
_cell_length_b 4.9029
_cell_length_c 5.5241
_cell_angle_alpha 90.0000
_cell_angle_beta 105.9575
_cell_angle_gamma 90.0000
_symmetry_Int_Tables_number 6
_chemical_formula_structural ScSb2Os
_chemical_formula_sum 'Sc1 Sb2 Os1'
_cell_volume 85.6903
_cell_formula_units_Z 1
loop_
_symmetry_equiv_pos_site_id
_symmetry_equiv_pos_as_xyz
1 'x, y, z'
loop_
_atom_site_type_symbol
_atom_site_label
_atom_site_symmetry_multiplicity
_atom_site_fract_x
_atom_site_fract_y
_atom_site_fract_z
_atom_site_occupancy
Sc Sc0 1 0.0689 0.0000 0.5117 1
Sb Sb1 1 0.4779 0.5000 0.2777 1
Sb Sb2 1 0.8315 0.0000 0.9530 1
Os Os3 1 0.6217 0.5000 0.7576 1

