data_Sr1Rh1I4
loop_
_atom_type_symbol
_atom_type_electronegativity
_atom_type_radius
_atom_type_ionic_radius
Sr 0.9500 2.0000 1.3200
Rh 2.2800 1.3500 0.7450
I 2.6600 1.4000 1.2733
_symmetry_space_group_name_H-M P2/m
_cell_length_a 4.7449
_cell_length_b 4.3028
_cell_length_c 8.5251
_cell_angle_alpha 90.0000
_cell_angle_beta 104.5575
_cell_angle_gamma 90.0000
_symmetry_Int_Tables_number 10
_chemical_formula_structural SrRhI4
_chemical_formula_sum 'Sr1 Rh1 I4'
_cell_volume 169.0358
_cell_formula_units_Z 1
loop_
_symmetry_equiv_pos_site_id
_symmetry_equiv_pos_as_xyz
1 'x, y, z'
loop_
_atom_site_type_symbol
_atom_site_label
_atom_site_symmetry_multiplicity
_atom_site_fract_x
_atom_site_fract_y
_atom_site_fract_z
_atom_site_occupancy
Sr Sr0 1 0.5000 0.5000 0.0000 1
Rh Rh1 1 0.0000 0.0000 0.5000 1
I I2 2 0.1547 0.5000 0.7033 1
I I3 2 0.2493 0.0000 0.2944 1

