data_Ti1P2Au1
loop_
_atom_type_symbol
_atom_type_electronegativity
_atom_type_radius
_atom_type_ionic_radius
Ti 1.5400 1.4000 0.8517
P 2.1900 1.0000 0.5500
Au 2.5400 1.3500 1.0700
_symmetry_space_group_name_H-M Pm
_cell_length_a 3.4849
_cell_length_b 3.6921
_cell_length_c 5.2241
_cell_angle_alpha 90.0000
_cell_angle_beta 105.5579
_cell_angle_gamma 90.0000
_symmetry_Int_Tables_number 6
_chemical_formula_structural TiP2Au
_chemical_formula_sum 'Ti1 P2 Au1'
_cell_volume 64.9903
_cell_formula_units_Z 1
loop_
_symmetry_equiv_pos_site_id
_symmetry_equiv_pos_as_xyz
1 'x, y, z'
loop_
_atom_site_type_symbol
_atom_site_label
_atom_site_symmetry_multiplicity
_atom_site_fract_x
_atom_site_fract_y
_atom_site_fract_z
_atom_site_occupancy
Ti Ti0 1 0.1499 0.0000 0.4417 1
P P1 1 0.6075 0.5000 0.3377 1
P P2 1 0.9085 0.0000 0.9230 1
Au Au3 1 0.3340 0.5000 0.7976 1

