data_Tm1Os1S2
loop_
_atom_type_symbol
_atom_type_electronegativity
_atom_type_radius
_atom_type_ionic_radius
Tm 1.2500 1.7500 1.0950
Os 2.2000 1.3000 0.6730
S 2.5800 1.0000 0.8800
_symmetry_space_group_name_H-M P-6m2
_cell_length_a 3.6849
_cell_length_b 3.6849
_cell_length_c 6.5251
_cell_angle_alpha 90.0000
_cell_angle_beta 90.0000
_cell_angle_gamma 120.0000
_symmetry_Int_Tables_number 187
_chemical_formula_structural TmOsS2
_chemical_formula_sum 'Tm1 Os1 S2'
_cell_volume 76.8358
_cell_formula_units_Z 1
loop_
_symmetry_equiv_pos_site_id
_symmetry_equiv_pos_as_xyz
1 'x, y, z'
loop_
_atom_site_type_symbol
_atom_site_label
_atom_site_symmetry_multiplicity
_atom_site_fract_x
_atom_site_fract_y
_atom_site_fract_z
_atom_site_occupancy
Tm Tm0 1 0.3333 0.6667 0.5000 1
Os Os1 1 0.0000 0.0000 0.0000 1
S S2 2 0.6667 0.3333 0.7673 1

