data_V1Hg1Cl4
loop_
_atom_type_symbol
_atom_type_electronegativity
_atom_type_radius
_atom_type_ionic_radius
V 1.6300 1.3500 0.7775
Hg 2.0000 1.5000 1.2450
Cl 3.1600 1.0000 0.7800
_symmetry_space_group_name_H-M P4/mmm
_cell_length_a 7.1449
_cell_length_b 7.1449
_cell_length_c 3.8241
_cell_angle_alpha 90.0000
_cell_angle_beta 90.0000
_cell_angle_gamma 90.0000
_symmetry_Int_Tables_number 123
_chemical_formula_structural VHgCl4
_chemical_formula_sum 'V1 Hg1 Cl4'
_cell_volume 194.4858
_cell_formula_units_Z 1
loop_
_symmetry_equiv_pos_site_id
_symmetry_equiv_pos_as_xyz
1 'x, y, z'
loop_
_atom_site_type_symbol
_atom_site_label
_atom_site_symmetry_multiplicity
_atom_site_fract_x
_atom_site_fract_y
_atom_site_fract_z
_atom_site_occupancy
V V0 1 0.0000 0.0000 0.5000 1
Hg Hg1 1 0.5000 0.5000 0.5000 1
Cl Cl2 4 0.2247 0.2247 0.5000 1

