data_Y1V1As2
loop_
_atom_type_symbol
_atom_type_electronegativity
_atom_type_radius
_atom_type_ionic_radius
Y 1.2200 1.8000 1.0400
V 1.6300 1.3500 0.7775
As 2.1800 1.1500 0.6600
_symmetry_space_group_name_H-M Pm
_cell_length_a 3.8849
_cell_length_b 5.5029
_cell_length_c 3.9241
_cell_angle_alpha 90.0000
_cell_angle_beta 90.0557
_cell_angle_gamma 90.0000
_symmetry_Int_Tables_number 6
_chemical_formula_structural YVAs2
_chemical_formula_sum 'Y1 V1 As2'
_cell_volume 82.8998
_cell_formula_units_Z 1
loop_
_symmetry_equiv_pos_site_id
_symmetry_equiv_pos_as_xyz
1 'x, y, z'
loop_
_atom_site_type_symbol
_atom_site_label
_atom_site_symmetry_multiplicity
_atom_site_fract_x
_atom_site_fract_y
_atom_site_fract_z
_atom_site_occupancy
Y Y0 1 0.8708 0.5000 0.8911 1
V V1 1 0.3677 0.0000 0.3577 1
As As2 1 0.3801 0.5000 0.3823 1
As As3 1 0.8814 0.0000 0.8688 1

